Version 4
SHEET 1 880 680
WIRE -1760 -1088 -1792 -1088
WIRE -1616 -1088 -1680 -1088
WIRE -2352 -1072 -2560 -1072
WIRE -2208 -1072 -2288 -1072
WIRE -2672 -960 -2736 -960
WIRE -2560 -960 -2560 -1072
WIRE -2560 -960 -2592 -960
WIRE -2528 -960 -2560 -960
WIRE -2384 -960 -2448 -960
WIRE -2320 -960 -2384 -960
WIRE -2384 -944 -2384 -960
WIRE -2208 -944 -2208 -1072
WIRE -2208 -944 -2256 -944
WIRE -2176 -944 -2208 -944
WIRE -2112 -944 -2176 -944
WIRE -2016 -944 -2112 -944
WIRE -1904 -944 -2016 -944
WIRE -1792 -944 -1792 -1088
WIRE -1792 -944 -1824 -944
WIRE -2320 -928 -2352 -928
WIRE -1728 -928 -1728 -960
WIRE -1792 -912 -1792 -944
WIRE -1760 -912 -1792 -912
WIRE -1344 -912 -1344 -928
WIRE -2288 -896 -2288 -912
WIRE -1616 -896 -1616 -1088
WIRE -1616 -896 -1696 -896
WIRE -1440 -896 -1616 -896
WIRE -1376 -896 -1440 -896
WIRE -2016 -880 -2016 -944
WIRE -1984 -880 -2016 -880
WIRE -1856 -880 -1904 -880
WIRE -1760 -880 -1856 -880
WIRE -1264 -880 -1312 -880
WIRE -1136 -880 -1264 -880
WIRE -3088 -864 -3088 -896
WIRE -1376 -864 -1408 -864
WIRE -2384 -848 -2384 -880
WIRE -1728 -832 -1728 -864
WIRE -1344 -832 -1344 -848
WIRE -2352 -816 -2352 -928
WIRE -2288 -816 -2352 -816
WIRE -2176 -816 -2176 -944
WIRE -2176 -816 -2208 -816
WIRE -2176 -752 -2176 -816
WIRE -1408 -720 -1408 -864
WIRE -1376 -720 -1408 -720
WIRE -1264 -720 -1264 -880
WIRE -1264 -720 -1296 -720
WIRE -2016 -688 -2016 -704
WIRE -1408 -688 -1408 -720
WIRE -2176 -640 -2176 -672
WIRE -1856 -640 -1856 -880
WIRE -2016 -576 -2016 -608
WIRE -1904 -576 -2016 -576
WIRE -2016 -512 -2016 -576
WIRE -2160 -464 -2224 -464
WIRE -2016 -384 -2016 -416
FLAG -3296 -768 0
FLAG -3408 -768 0
FLAG -3408 -848 12v
FLAG -3296 -848 -12v
FLAG -3088 -784 0
FLAG -3088 -896 VPWM
FLAG -2736 -960 VPWM
FLAG -2288 -896 12v
FLAG -2288 -976 -12v
FLAG -2384 -848 0
FLAG -2176 -640 0
FLAG -2112 -944 VPWMout
FLAG -1728 -960 12v
FLAG -1728 -832 -12v
FLAG -1440 -896 Vout
FLAG -1856 -544 0
FLAG -2224 -384 0
FLAG -1344 -832 12v
FLAG -1344 -928 -12v
FLAG -1408 -608 0
FLAG -1136 -880 Vout2
FLAG -2016 -384 0
FLAG -2016 -704 12v
SYMBOL voltage -3408 -864 R0
WINDOW 123 0 0 Left 0
WINDOW 39 0 0 Left 0
SYMATTR InstName V2
SYMATTR Value 12v
SYMBOL voltage -3296 -864 R0
WINDOW 123 0 0 Left 0
WINDOW 39 0 0 Left 0
SYMATTR InstName V3
SYMATTR Value -12v
SYMBOL voltage -3088 -880 R0
WINDOW 0 45 56 Left 2
WINDOW 3 45 84 Left 2
WINDOW 123 0 0 Left 0
WINDOW 39 0 0 Left 0
SYMATTR InstName V7
SYMATTR Value PULSE(0 3.3 0 100n 100n 57u 58u)
SYMBOL res -2576 -976 R90
WINDOW 0 0 56 VBottom 2
WINDOW 3 32 56 VTop 2
SYMATTR InstName R14
SYMATTR Value 1.2k
SYMBOL res -2432 -976 R90
WINDOW 0 0 56 VBottom 2
WINDOW 3 32 56 VTop 2
SYMATTR InstName R15
SYMATTR Value 1.2k
SYMBOL res -2160 -656 R180
WINDOW 0 36 76 Left 2
WINDOW 3 36 40 Left 2
SYMATTR InstName R16
SYMATTR Value 10k
SYMBOL res -2304 -800 R270
WINDOW 0 32 56 VTop 2
WINDOW 3 0 56 VBottom 2
SYMATTR InstName R17
SYMATTR Value 16k
SYMBOL cap -2288 -1088 R90
WINDOW 0 0 32 VBottom 2
WINDOW 3 32 32 VTop 2
SYMATTR InstName C1
SYMATTR Value 470n
SYMBOL cap -2368 -880 R180
WINDOW 0 24 56 Left 2
WINDOW 3 24 8 Left 2
SYMATTR InstName C2
SYMATTR Value 470n
SYMBOL Opamps\\UniversalOpamp2 -2288 -944 M180
SYMATTR InstName U5
SYMBOL Opamps\\UniversalOpamp2 -1728 -896 R0
SYMATTR InstName U2
SYMBOL res -1808 -960 R90
WINDOW 0 0 56 VBottom 2
WINDOW 3 32 56 VTop 2
SYMATTR InstName R1
SYMATTR Value 50k
SYMBOL res -1664 -1104 R90
WINDOW 0 0 56 VBottom 2
WINDOW 3 32 56 VTop 2
SYMATTR InstName R3
SYMATTR Value 50k
SYMBOL pjf -1904 -640 R0
SYMATTR InstName J1
SYMATTR Value SST177
SYMBOL res -1888 -896 R90
WINDOW 0 0 56 VBottom 2
WINDOW 3 32 56 VTop 2
SYMATTR InstName R2
SYMATTR Value 50k
SYMBOL voltage -2224 -480 R0
WINDOW 123 0 0 Left 0
WINDOW 39 0 0 Left 0
WINDOW 0 42 56 Left 2
SYMATTR InstName V1
SYMATTR Value 0
SYMBOL Opamps\\UniversalOpamp2 -1344 -880 M180
SYMATTR InstName U1
SYMBOL res -1280 -736 R90
WINDOW 0 0 56 VBottom 2
WINDOW 3 32 56 VTop 2
SYMATTR InstName R4
SYMATTR Value 18k
SYMBOL res -1392 -592 R180
WINDOW 0 36 76 Left 2
WINDOW 3 36 40 Left 2
SYMATTR InstName R5
SYMATTR Value 10k
SYMBOL npn -2080 -512 R0
SYMATTR InstName Q1
SYMBOL res -2064 -480 R90
WINDOW 0 0 56 VBottom 2
WINDOW 3 32 56 VTop 2
SYMATTR InstName R6
SYMATTR Value 100
SYMBOL res -2000 -592 R180
WINDOW 0 36 76 Left 2
WINDOW 3 36 40 Left 2
SYMATTR InstName R7
SYMATTR Value 10k
TEXT -3000 -760 Left 2 ;1 KHz PWM
TEXT -2560 -536 Left 2 !.tran 0 10m 0 10u
TEXT -1672 -864 Left 2 ;LM358
TEXT -2400 -992 Left 2 ;LM358
TEXT -1296 -928 Left 2 ;LM358
